TITLE
there will be a cylinder if this works.
GEOBEGIN                                                              COMBNAME
    0    0          
* Set the defaults for precision simulations
#define ELSELSE
RPP bb         -200. 200. -200. 200. -200. 200.
#if cone 
TRC bb1        0.0 -35. 0.0 0.0 80. 0.0 100. 5.
#elif box 
RPP bb1        -50. 50. -50. 50. -50. 50.
#elif sphere 
SPH bb1        0.0 0.0 0.0 25.
#else  
RCC bb1        0.0 -85. 0.0 0.0 190. 0.0 100.
#endif  
END
outside      5 +bb -bb1
inside       5 +bb1
END
GEOEND
ASSIGNMA    BLCKHOLE   outside
ASSIGNMA      KAPTON    inside
* ..+....1....+....2....+....3....+....4....+....5....+....6....+....7..
* Set the random number seed
RANDOMIZ          1.
* Set the number of primary histories to be simulated in the run
START
STOP
